28
Lattice="8.86047739989916 0.0 0.0 4.43023869994958 7.673398517970561 0.0 0.0 0.0 16.823033001603367" Properties=species:S:1:pos:R:3:tags:I:1:forces:R:3:magmoms:R:1 energy=-82.88452683197613 dipole="-1.1453835272277768 -0.661287487770381 -0.2652019161239162" magmom=5.7745483681448e-11 free_energy=-83.01552921647948 pbc="T T F"
Au       1.47674623       0.85259984       6.00000000        3       0.00230008       0.00132795      -0.09014843       0.00000000
Au       4.43023870       0.85259984       6.00000000        3      -0.02563634       0.00873046      -0.06045381      -0.00000000
Au       7.38373117       0.85259984       6.00000000        3       0.01706544      -0.02520700      -0.06010804      -0.00000000
Au       2.95349247       3.41039934       6.00000000        3      -0.00525737      -0.02656695      -0.06045381      -0.00000000
Au       5.90698493       3.41039934       6.00000000        3      -0.00746754      -0.00431139       0.00266843       0.00000000
Au       8.86047740       3.41039934       6.00000000        3       0.00477272      -0.00724915      -0.06290380      -0.00000000
Au       4.43023870       5.96819885       6.00000000        3      -0.01329719       0.02738260      -0.06010804      -0.00000000
Au       7.38373117       5.96819885       6.00000000        3      -0.00389159       0.00775788      -0.06290380      -0.00000000
Au      10.33722363       5.96819885       6.00000000        3       0.01239308       0.00715515       0.11310167      -0.00000000
Au      -0.00000000       1.70519967       8.41151650        2      -0.02856763       0.02642125      -0.02547887      -0.00000000
Au       2.95349247       1.70519967       8.41151650        2       0.03394279       0.01959688      -0.04305044      -0.00000000
Au       5.90698493       1.70519967       8.41151650        2      -0.00650911      -0.01190422       0.01960641      -0.00000000
Au       1.47674623       4.26299918       8.41151650        2       0.00552941      -0.24286931       0.19913749      -0.00000000
Au       4.43023870       4.26299918       8.41151650        2      -0.01356391       0.00031506       0.01960641      -0.00000000
Au       7.38373117       4.26299918       8.41151650        2       0.01641747       0.00947863       0.03023238      -0.00000000
Au       2.95349247       6.82079868       8.41151650        2       0.20104518       0.11607349       0.20394409      -0.00000000
Au       5.90698493       6.82079868       8.41151650        2       0.00859766      -0.03795092      -0.02547887      -0.00000000
Au       8.86047740       6.82079868       8.41151650        2      -0.20756629       0.12622326       0.19913749      -0.00000000
Au       0.00000000       0.00000000      10.82303300        1      -0.94383766      -0.54492493       0.02806225       0.00000000
Au       2.95349247       0.00000000      10.82303300        1       0.92535445      -0.54271824       0.03641720      -0.00000000
Au       5.90698493       0.00000000      10.82303300        1       0.01499570       0.00460540      -0.04592812       0.00000000
Au       1.47674623       2.55779951      10.82303300        1      -0.00733056       1.07273958       0.03641720      -0.00000000
Au       4.43023870       2.55779951      10.82303300        1       0.23961989       0.13834461      -0.05429349      -0.00000000
Au       7.38373117       2.55779951      10.82303300        1      -0.23038742       0.13530615      -0.05016552      -0.00000000
Au       2.95349247       5.11559901      10.82303300        1       0.01148624       0.01068396      -0.04592812       0.00000000
Au       5.90698493       5.11559901      10.82303300        1       0.00198485      -0.26717444      -0.05016552      -0.00000000
Au       8.86047740       5.11559901      10.82303300        1      -0.00805326      -0.00464955      -0.04336838      -0.00000000
O        1.47846028       0.85358944      12.17240982        0      -0.00228975      -0.00132199       0.00911063       0.00000000
