28
Lattice="8.418980542603652 0.0 0.0 4.209490271301826 7.291051023861659 0.0 0.0 0.0 16.58271255195529" Properties=species:S:1:pos:R:3:tags:I:1:forces:R:3:magmoms:R:1 energy=-167.2383343336224 dipole="-1.8555753639657588 -1.0713169358872523 -0.05610719157531906" magmom=1.2695707201523042e-11 free_energy=-168.09167945740273 pbc="T T F"
Pt       1.40316342       0.81011678       6.00000000        3      -0.00583516      -0.00336893      -0.03245481       0.00000000
Pt       4.20949027       0.81011678       6.00000000        3       0.02785762       0.01352251      -0.06776092      -0.00000000
Pt       7.01581712       0.81011678       6.00000000        3      -0.02848561       0.01251516      -0.07622585       0.00000000
Pt       2.80632685       3.24046712       6.00000000        3       0.02563965       0.01736415      -0.06776092      -0.00000000
Pt       5.61265370       3.24046712       6.00000000        3       0.00084119       0.00048566      -0.09566942      -0.00000000
Pt       8.41898054       3.24046712       6.00000000        3      -0.02867352       0.02494339      -0.07717865      -0.00000000
Pt       4.20949027       5.67081746       6.00000000        3      -0.00340436      -0.03092684      -0.07622585       0.00000000
Pt       7.01581712       5.67081746       6.00000000        3       0.00726485      -0.03730369      -0.07717865      -0.00000000
Pt       9.82214397       5.67081746       6.00000000        3      -0.00602689      -0.00347963      -0.37054869       0.00000000
Pt       0.00000000       1.62023356       8.29135628        2      -0.03933799       0.01676436      -0.31185438       0.00000000
Pt       2.80632685       1.62023356       8.29135628        2       0.04209159       0.02430159      -0.31476326      -0.00000000
Pt       5.61265370       1.62023356       8.29135628        2       0.00174772       0.02822376       0.00853561      -0.00000000
Pt       1.40316342       4.05058390       8.29135628        2       0.00057325      -0.12182440       0.44700100      -0.00000000
Pt       4.20949027       4.05058390       8.29135628        2       0.02531635      -0.01259831       0.00853561      -0.00000000
Pt       7.01581712       4.05058390       8.29135628        2      -0.02621621      -0.01513594       0.01304177       0.00000000
Pt       2.80632685       6.48093424       8.29135628        2       0.11315452       0.06532979       0.43654769       0.00000000
Pt       5.61265370       6.48093424       8.29135628        2      -0.00515063      -0.04244988      -0.31185438       0.00000000
Pt       8.41898054       6.48093424       8.29135628        2      -0.10521640       0.06140865       0.44700100      -0.00000000
Pt       0.00000000       0.00000000      10.58271255        1      -0.92422502      -0.53360156       0.22051487       0.00000000
Pt       2.80632685       0.00000000      10.58271255        1       0.89860215      -0.51347656       0.22677119      -0.00000000
Pt       5.61265370       0.00000000      10.58271255        1       0.00927296      -0.03210963       0.01766782       0.00000000
Pt       1.40316342       2.43035034      10.58271255        1       0.00461733       1.03495057       0.22677119      -0.00000000
Pt       4.20949027       2.43035034      10.58271255        1       0.37760015       0.21800755      -0.03085352       0.00000000
Pt       7.01581712       2.43035034      10.58271255        1      -0.37487226       0.21928296      -0.04212393       0.00000000
Pt       2.80632685       4.86070068      10.58271255        1      -0.02317127       0.02408543       0.01766782       0.00000000
Pt       5.61265370       4.86070068      10.58271255        1       0.00246848      -0.43429038      -0.04212393       0.00000000
Pt       8.41898054       4.86070068      10.58271255        1       0.03432852       0.01981958       0.00410784      -0.00000000
O        1.40375386       0.81045767      11.84391965        0       0.00432445       0.00249672       0.00047435      -0.00000000
